@<TRIPOS>MOLECULE
CALA
   11    10     1     0     1 
SMALL
USER_CHARGES
@<TRIPOS>ATOM
  1 N           3.325770    1.547909   -0.000002 N         1 CALA     -0.3821 ****
  2 H           3.909407    0.723611   -0.000003 H         1 CALA      0.2681 ****
  3 CA          3.970048    2.845795   -0.000000 CT        1 CALA     -0.1747 ****
  4 HA          3.671663    3.400129   -0.889820 H1        1 CALA      0.1067 ****
  5 CB          3.576965    3.653838    1.232143 CT        1 CALA     -0.2093 ****
  6 HB1         3.877484    3.115795    2.131197 HC        1 CALA      0.0764 ****
  7 HB2         4.075059    4.623017    1.205786 HC        1 CALA      0.0764 ****
  8 HB3         2.496995    3.801075    1.241379 HC        1 CALA      0.0764 ****
  9 C           5.485541    2.705207   -0.000004 C         1 CALA      0.7731 ****
 10 O           6.008824    1.593175   -0.000008 O2        1 CALA     -0.8055 ****
 11 OXT         6.204455    3.702003   -0.000002 O2        1 CALA     -0.8055 ****
@<TRIPOS>BOND
    1     1     2 1
    2     1     3 1
    3     3     4 1
    4     3     5 1
    5     3     9 1
    6     5     6 1
    7     5     7 1
    8     5     8 1
    9     9    10 1
   10     9    11 1
@<TRIPOS>SUBSTRUCTURE
      1 CALA              1 ****               0 ****  **** 
